         3 
mkg-eq
   C         -0.0000014014          0.0000000192          0.0000000015
   O          0.6155937128         -0.0000000096         -0.0000000008
   O         -0.6155923114         -0.0000000096         -0.0000000008
         3 
mkg-q1-11-0
   C         -0.0000014014          0.0101832574          0.2123508054
   O          0.6155937188         -0.0033120674         -0.0690661219
   O         -0.6155923229         -0.0033118767         -0.0690624135
         3 
mkg-q1-11-1
   C         -0.0000014014          0.0077261011          0.1611117876
   O          0.6155937174         -0.0025128870         -0.0524008673
   O         -0.6155923202         -0.0025127424         -0.0523980537
         3 
mkg-q1-11-2
   C         -0.0000014014          0.0056238097          0.1172727584
   O          0.6155937161         -0.0018291251         -0.0381424249
   O         -0.6155923178         -0.0018290198         -0.0381403769
         3 
mkg-q1-11-3
   C         -0.0000014014          0.0036823837          0.0767882534
   O          0.6155937150         -0.0011976840         -0.0249750261
   O         -0.6155923156         -0.0011976151         -0.0249736851
         3 
mkg-q1-11-4
   C         -0.0000014014          0.0018232444          0.0380196684
   O          0.6155937139         -0.0005930063         -0.0123657223
   O         -0.6155923135         -0.0005929722         -0.0123650584
         3 
mkg-q1-11-6
   C         -0.0000014013         -0.0018232059         -0.0380196653
   O          0.6155937117          0.0005929871          0.0123657208
   O         -0.6155923094          0.0005929530          0.0123650569
         3 
mkg-q1-11-7
   C         -0.0000014013         -0.0036823453         -0.0767882503
   O          0.6155937106          0.0011976648          0.0249750246
   O         -0.6155923073          0.0011975959          0.0249736836
         3 
mkg-q1-11-8
   C         -0.0000014013         -0.0056237712         -0.1172727554
   O          0.6155937095          0.0018291059          0.0381424234
   O         -0.6155923051          0.0018290006          0.0381403754
         3 
mkg-q1-11-9
   C         -0.0000014013         -0.0077260627         -0.1611117845
   O          0.6155937082          0.0025128678          0.0524008658
   O         -0.6155923027          0.0025127232          0.0523980522
         3 
mkg-q1-11-10
   C         -0.0000014013         -0.0101832190         -0.2123508024
   O          0.6155937068          0.0033120481          0.0690661204
   O         -0.6155923000          0.0033118575          0.0690624120
         3 
mkg-q2-11-0
   C         -0.0000014036         -0.2123507679          0.0101832389
   O          0.6155937168          0.0690660939         -0.0033120448
   O         -0.6155923148          0.0690624099         -0.0033118810
         3 
mkg-q2-11-1
   C         -0.0000014030         -0.1611117541          0.0077260828
   O          0.6155937158          0.0524008435         -0.0025128678
   O         -0.6155923140          0.0523980485         -0.0025127435
         3 
mkg-q2-11-2
   C         -0.0000014026         -0.1172727284          0.0056237915
   O          0.6155937150          0.0381424048         -0.0018291087
   O         -0.6155923133          0.0381403703         -0.0018290182
         3 
mkg-q2-11-3
   C         -0.0000014022         -0.0767882266          0.0036823657
   O          0.6155937142          0.0249750093         -0.0011976702
   O         -0.6155923126          0.0249736772         -0.0011976110
         3 
mkg-q2-11-4
   C         -0.0000014018         -0.0380196447          0.0018232265
   O          0.6155937135          0.0123657088         -0.0005929950
   O         -0.6155923120          0.0123650492         -0.0005929657
         3 
mkg-q2-11-6
   C         -0.0000014010          0.0380196831         -0.0018232235
   O          0.6155937121         -0.0123657280          0.0005929935
   O         -0.6155923108         -0.0123650684          0.0005929642
         3 
mkg-q2-11-7
   C         -0.0000014006          0.0767882650         -0.0036823627
   O          0.6155937114         -0.0249750285          0.0011976687
   O         -0.6155923102         -0.0249736964          0.0011976095
         3 
mkg-q2-11-8
   C         -0.0000014001          0.1172727668         -0.0056237885
   O          0.6155937106         -0.0381424240          0.0018291072
   O         -0.6155923096         -0.0381403895          0.0018290167
         3 
mkg-q2-11-9
   C         -0.0000013997          0.1611117925         -0.0077260797
   O          0.6155937098         -0.0524008627          0.0025128663
   O         -0.6155923089         -0.0523980677          0.0025127420
         3 
mkg-q2-11-10
   C         -0.0000013992          0.2123508063         -0.0101832359
   O          0.6155937088         -0.0690661131          0.0033120433
   O         -0.6155923081         -0.0690624291          0.0033118795
         3 
mkg-q3-11-0
   C          0.0000028002          0.0000000123          0.0000000083
   O          0.5145094314         -0.0000000179         -0.0000000111
   O         -0.5145107630         -0.0000000039         -0.0000000048
         3 
mkg-q3-11-1
   C          0.0000017864          0.0000000139          0.0000000066
   O          0.5389004824         -0.0000000159         -0.0000000086
   O         -0.5389011546         -0.0000000053         -0.0000000038
         3 
mkg-q3-11-2
   C          0.0000009190          0.0000000154          0.0000000053
   O          0.5597689542         -0.0000000142         -0.0000000065
   O         -0.5597690622         -0.0000000064         -0.0000000030
         3 
mkg-q3-11-3
   C          0.0000001180          0.0000000167          0.0000000040
   O          0.5790405888         -0.0000000126         -0.0000000045
   O         -0.5790401758         -0.0000000075         -0.0000000022
         3 
mkg-q3-11-4
   C         -0.0000006491          0.0000000180          0.0000000027
   O          0.5974954027         -0.0000000111         -0.0000000026
   O         -0.5974944906         -0.0000000086         -0.0000000015
         3 
mkg-q3-11-6
   C         -0.0000021536          0.0000000205          0.0000000003
   O          0.6336920229         -0.0000000081          0.0000000011
   O         -0.6336901323         -0.0000000106         -0.0000000000
         3 
mkg-q3-11-7
   C         -0.0000029207          0.0000000217         -0.0000000009
   O          0.6521468368         -0.0000000066          0.0000000030
   O         -0.6521444471         -0.0000000117          0.0000000007
         3 
mkg-q3-11-8
   C         -0.0000037217          0.0000000231         -0.0000000022
   O          0.6714184714         -0.0000000050          0.0000000050
   O         -0.6714155607         -0.0000000128          0.0000000015
         3 
mkg-q3-11-9
   C         -0.0000045891          0.0000000245         -0.0000000036
   O          0.6922869432         -0.0000000033          0.0000000071
   O         -0.6922834682         -0.0000000139          0.0000000023
         3 
mkg-q3-11-10
   C         -0.0000056029          0.0000000262         -0.0000000052
   O          0.7166779942         -0.0000000013          0.0000000096
   O         -0.7166738598         -0.0000000153          0.0000000033
         3 
mkg-q4-11-0
   C          0.1092334475          0.0000000182          0.0000000005
   O          0.5800682948         -0.0000000064          0.0000000003
   O         -0.6511212490         -0.0000000122         -0.0000000010
         3 
mkg-q4-11-1
   C          0.0828757117          0.0000000184          0.0000000008
   O          0.5886403722         -0.0000000071          0.0000000001
   O         -0.6425483223         -0.0000000116         -0.0000000010
         3 
mkg-q4-11-2
   C          0.0603245858          0.0000000186          0.0000000010
   O          0.5959744619         -0.0000000078         -0.0000000001
   O         -0.6352135061         -0.0000000110         -0.0000000009
         3 
mkg-q4-11-3
   C          0.0394990523          0.0000000188          0.0000000012
   O          0.6027473534         -0.0000000084         -0.0000000004
   O         -0.6284399435         -0.0000000105         -0.0000000009
         3 
mkg-q4-11-4
   C          0.0195562009          0.0000000190          0.0000000013
   O          0.6092331786         -0.0000000090         -0.0000000006
   O         -0.6219534758         -0.0000000101         -0.0000000008
         3 
mkg-q4-11-6
   C         -0.0195590036          0.0000000194          0.0000000017
   O          0.6219542470         -0.0000000102         -0.0000000010
   O         -0.6092311471         -0.0000000091         -0.0000000007
         3 
mkg-q4-11-7
   C         -0.0395018550          0.0000000196          0.0000000019
   O          0.6284400722         -0.0000000108         -0.0000000012
   O         -0.6027446793         -0.0000000087         -0.0000000007
         3 
mkg-q4-11-8
   C         -0.0603273885          0.0000000198          0.0000000021
   O          0.6352129637         -0.0000000114         -0.0000000014
   O         -0.5959711168         -0.0000000082         -0.0000000006
         3 
mkg-q4-11-9
   C         -0.0828785145          0.0000000200          0.0000000023
   O          0.6425470534         -0.0000000121         -0.0000000016
   O         -0.5886363005         -0.0000000076         -0.0000000006
         3 
mkg-q4-11-10
   C         -0.1092362502          0.0000000202          0.0000000025
   O          0.6511191308         -0.0000000129         -0.0000000019
   O         -0.5800633739         -0.0000000070         -0.0000000005
