         3 
mkqff-eq
   C         -0.0000012154          0.0000000105          0.0000000046
   O          0.6138681975         -0.0000000052         -0.0000000023
   O         -0.6138669821         -0.0000000052         -0.0000000023
         3 
mkqff0-0
   C         -0.0125851989          0.0000000105          0.0000000046
   O          0.6170108072         -0.0000000052         -0.0000000023
   O         -0.6013150018         -0.0000000052         -0.0000000023
         3 
mkqff0-1
   C          0.0125827680          0.0000000105          0.0000000046
   O          0.6107255879         -0.0000000052         -0.0000000023
   O         -0.6264189624         -0.0000000052         -0.0000000023
         3 
mkqff1-0
   C         -0.0000012154          0.0105168423          0.0000000046
   O          0.6138681975         -0.0056578621         -0.0000000023
   O         -0.6138669821         -0.0044516762         -0.0115202893
         3 
mkqff1-1
   C         -0.0000012154         -0.0105168214          0.0000000046
   O          0.6138681975          0.0056578516         -0.0000000023
   O         -0.6138669821          0.0044516658          0.0115202846
         3 
mkqff2-0
   C         -0.0000012154          0.0000000105          0.0001881448
   O          0.6138681975         -0.0000000052         -0.0055969062
   O         -0.6138669821          0.0063312939          0.0108672425
         3 
mkqff2-1
   C         -0.0000012154          0.0000000105         -0.0001881356
   O          0.6138681975         -0.0000000052          0.0055969016
   O         -0.6138669821         -0.0063313043         -0.0108672471
         3 
mkqff3-0
   C         -0.0000012154          0.0000000105          0.0146606513
   O          0.6138681975         -0.0000000052         -0.0104116870
   O         -0.6138669821         -0.0027451548         -0.0011770804
         3 
mkqff3-1
   C         -0.0000012154          0.0000000105         -0.0146606420
   O          0.6138681975         -0.0000000052          0.0104116824
   O         -0.6138669821          0.0027451443          0.0011770758
